power-feeders/Taxonomy_feeders/R3_1247_2_t6.glm
//Input feeder information for Taxonomy Feeders with different cases.
//Started on 10/21/09. This version created 25-Feb-2019 18:34:39.
// This version was created to perform FY11 Department of Energy
// analysis on the benefits of the SGIG grant projects.

clock {
     timezone MST+7MDT;
     starttime '2009-01-01 00:00:00';
     stoptime '2010-01-02 00:00:00';
}

#include "appliance_schedules.glm";
#include "water_and_setpoint_schedule_v5.glm";
#include "commercial_schedules.glm";
#include "daily_elasticity_schedules.glm";
//#define stylesheet=http://gridlab-d.svn.sourceforge.net/viewvc/gridlab-d/trunk/core/gridlabd-2_0
#set minimum_timestep=60;
#set profiler=1;
#set relax_naming_rules=1;

module tape;
module climate;
module residential {
     implicit_enduses NONE;
};
module powerflow {
     solver_method NR;
     NR_iteration_limit 50;
};

class player {
     double value;
};

module market;

class auction {
     double my_avg;
     double my_std;
};

object player {
     name CPP_days_R3;
     file CPP_days_R3.player;
};

object auction {
     name Market_1;
     period 900;
     special_mode BUYERS_ONLY;
     unit kW;
     my_avg 0.071263;
     my_std 0.024597;
     object player {
          file R3_1247_2_t0_TOU.player;
          loop 10;
          property current_market.clearing_price;
     };
}

object climate {
     name "AZ-Phoenix";
     tmyfile "AZ-Phoenix.tmy2";
     interpolate QUADRATIC;
};

//Configurations

object regulator_configuration {     
      name regulator_configuration_786;     
      name feeder_reg_cfg;     
      Control OUTPUT_VOLTAGE;     
      band_center 7500.0;     
      band_width 120;     
      connect_type WYE_WYE;     
      time_delay 30;     
      raise_taps 16;     
      lower_taps 16;     
      regulation 0.10;     
      tap_pos_A 0;     
      tap_pos_B 0;     
      tap_pos_C 0;     
}       

object line_configuration {     
      name line_configuration_21;     
      conductor_B overhead_line_conductor_2;     
      conductor_N overhead_line_conductor_2;     
      spacing line_spacing_16;     
}       

object line_configuration {     
      name line_configuration_22;     
      conductor_A overhead_line_conductor_3;     
      conductor_B overhead_line_conductor_3;     
      conductor_C overhead_line_conductor_3;     
      conductor_N overhead_line_conductor_3;     
      spacing line_spacing_17;     
}       

object line_configuration {     
      name line_configuration_23;     
      conductor_A overhead_line_conductor_2;     
      conductor_B overhead_line_conductor_2;     
      conductor_C overhead_line_conductor_2;     
      conductor_N overhead_line_conductor_2;     
      spacing line_spacing_17;     
}       

object line_configuration {     
      name line_configuration_24;     
      conductor_A overhead_line_conductor_2;     
      conductor_N overhead_line_conductor_2;     
      spacing line_spacing_18;     
}       

object line_configuration {     
      name line_configuration_25;     
      conductor_B overhead_line_conductor_4;     
      conductor_N overhead_line_conductor_4;     
      spacing line_spacing_16;     
}       

object line_configuration {     
      name line_configuration_26;     
      conductor_B overhead_line_conductor_5;     
      conductor_N overhead_line_conductor_5;     
      spacing line_spacing_16;     
}       

object line_configuration {     
      name line_configuration_27;     
      conductor_A overhead_line_conductor_3;     
      conductor_N overhead_line_conductor_3;     
      spacing line_spacing_18;     
}       

object line_configuration {     
      name line_configuration_28;     
      conductor_A overhead_line_conductor_3;     
      conductor_B overhead_line_conductor_3;     
      conductor_N overhead_line_conductor_3;     
      spacing line_spacing_19;     
}       

object line_configuration {     
      name line_configuration_29;     
      conductor_A overhead_line_conductor_3;     
      conductor_N overhead_line_conductor_3;     
      spacing line_spacing_18;     
}       

object line_configuration {     
      name line_configuration_30;     
      conductor_A overhead_line_conductor_5;     
      conductor_B overhead_line_conductor_5;     
      conductor_C overhead_line_conductor_5;     
      conductor_N overhead_line_conductor_5;     
      spacing line_spacing_17;     
}       

object line_configuration {     
      name line_configuration_31;     
      conductor_B overhead_line_conductor_6;     
      conductor_N overhead_line_conductor_6;     
      spacing line_spacing_16;     
}       

object line_configuration {     
      name line_configuration_32;     
      conductor_A overhead_line_conductor_3;     
      conductor_B overhead_line_conductor_3;     
      conductor_C overhead_line_conductor_3;     
      conductor_N overhead_line_conductor_3;     
      spacing line_spacing_17;     
}       

object line_configuration {     
      name line_configuration_33;     
      conductor_C overhead_line_conductor_7;     
      conductor_N overhead_line_conductor_7;     
      spacing line_spacing_20;     
}       

object line_configuration {     
      name line_configuration_34;     
      conductor_A overhead_line_conductor_6;     
      conductor_B overhead_line_conductor_6;     
      conductor_C overhead_line_conductor_6;     
      conductor_N overhead_line_conductor_6;     
      spacing line_spacing_17;     
}       

object line_configuration {     
      name line_configuration_35;     
      conductor_A overhead_line_conductor_8;     
      conductor_B overhead_line_conductor_8;     
      conductor_C overhead_line_conductor_8;     
      conductor_N overhead_line_conductor_8;     
      spacing line_spacing_17;     
}       

object line_configuration {     
      name line_configuration_36;     
      conductor_A overhead_line_conductor_9;     
      conductor_B overhead_line_conductor_9;     
      conductor_C overhead_line_conductor_9;     
      conductor_N overhead_line_conductor_9;     
      spacing line_spacing_17;     
}       

object line_configuration {     
      name line_configuration_37;     
      conductor_A overhead_line_conductor_3;     
      conductor_B overhead_line_conductor_3;     
      conductor_C overhead_line_conductor_3;     
      conductor_N overhead_line_conductor_3;     
      spacing line_spacing_17;     
}       

object line_configuration {     
      name line_configuration_38;     
      conductor_C underground_line_conductor_10;     
      conductor_N underground_line_conductor_10;     
      spacing line_spacing_20;     
}       

object line_configuration {     
      name line_configuration_39;     
      conductor_A underground_line_conductor_10;     
      conductor_B underground_line_conductor_10;     
      conductor_C underground_line_conductor_10;     
      conductor_N underground_line_conductor_10;     
      spacing line_spacing_17;     
}       

object line_configuration {     
      name line_configuration_40;     
      conductor_A underground_line_conductor_10;     
      conductor_N underground_line_conductor_10;     
      spacing line_spacing_18;     
}       

object line_configuration {     
      name line_configuration_41;     
      conductor_A underground_line_conductor_11;     
      conductor_B underground_line_conductor_11;     
      conductor_C underground_line_conductor_11;     
      conductor_N underground_line_conductor_11;     
      spacing line_spacing_17;     
}       

object line_configuration {     
      name line_configuration_42;     
      conductor_A underground_line_conductor_12;     
      conductor_B underground_line_conductor_12;     
      conductor_C underground_line_conductor_12;     
      conductor_N underground_line_conductor_12;     
      spacing line_spacing_17;     
}       

object line_configuration {     
      name line_configuration_43;     
      conductor_A underground_line_conductor_13;     
      conductor_B underground_line_conductor_13;     
      conductor_C underground_line_conductor_13;     
      conductor_N underground_line_conductor_13;     
      spacing line_spacing_17;     
}       

object line_configuration {     
      name line_configuration_44;     
      conductor_B underground_line_conductor_10;     
      conductor_N underground_line_conductor_10;     
      spacing line_spacing_16;     
}       

object line_configuration {     
      name line_configuration_45;     
      conductor_C underground_line_conductor_11;     
      conductor_N underground_line_conductor_11;     
      spacing line_spacing_20;     
}       

object line_configuration {     
      name line_configuration_46;     
      conductor_A overhead_line_conductor_14;     
      conductor_B overhead_line_conductor_14;     
      conductor_C overhead_line_conductor_14;     
      conductor_N overhead_line_conductor_14;     
      spacing line_spacing_17;     
}       

object line_configuration {     
      name line_configuration_47;     
      conductor_B overhead_line_conductor_14;     
      conductor_N overhead_line_conductor_14;     
      spacing line_spacing_16;     
}       

object line_spacing {     
      name line_spacing_16;     
      distance_BN 36.0 in;    
}       

object line_spacing {     
      name line_spacing_17;     
      distance_AB 48.0 in;    
      distance_BC 48.0 in;    
      distance_AC 48.0 in;    
      distance_AN 36.0 in;    
      distance_BN 36.0 in;    
      distance_CN 36.0 in;    
}       

object line_spacing {     
      name line_spacing_18;     
      distance_AN 36.0 in;    
}       

object line_spacing {     
      name line_spacing_19;     
      distance_AB 48.0 in;    
      distance_AN 36.0 in;    
      distance_BN 36.0 in;    
}       

object line_spacing {     
      name line_spacing_20;     
      distance_CN 36.0 in;    
}       

object overhead_line_conductor {     
      name overhead_line_conductor_2;     
      //name 123.3 AAAC;    
      rating.summer.continuous 256.0;     
      geometric_mean_radius 0.01200 ft;    
      resistance 0.16600;     
}       

object overhead_line_conductor {     
      name overhead_line_conductor_3;     
      //name 559.5 AAAC;    
      rating.summer.continuous 663.0;     
      geometric_mean_radius 0.02710 ft;    
      resistance 0.03690;     
}       

object overhead_line_conductor {     
      name overhead_line_conductor_4;     
      //name 4 CW;    
      rating.summer.continuous 180.0;     
      geometric_mean_radius 0.00340 ft;    
      resistance 0.28600;     
}       

object overhead_line_conductor {     
      name overhead_line_conductor_5;     
      //name 4 CU;    
      rating.summer.continuous 149.0;     
      geometric_mean_radius 0.00663 ft;    
      resistance 1.50000;     
}       

object overhead_line_conductor {     
      name overhead_line_conductor_6;     
      //name 1/0 AAAC;    
      rating.summer.continuous 266.0;     
      geometric_mean_radius 0.01142 ft;    
      resistance 0.95300;     
}       

object overhead_line_conductor {     
      name overhead_line_conductor_7;     
      //name 2 CU;    
      rating.summer.continuous 204.0;     
      geometric_mean_radius 0.00836 ft;    
      resistance 0.94500;     
}       

object overhead_line_conductor {     
      name overhead_line_conductor_8;     
      //name 312.8 AAAC;    
      rating.summer.continuous 460.0;     
      geometric_mean_radius 0.02020 ft;    
      resistance 0.06570;     
}       

object overhead_line_conductor {     
      name overhead_line_conductor_9;     
      //name 336.4 AAC;    
      rating.summer.continuous 443.0;     
      geometric_mean_radius 0.02270 ft;    
      resistance 0.05230;     
}       

object overhead_line_conductor {     
      name overhead_line_conductor_14;     
      //name 556.5 AAC;    
      rating.summer.continuous 605.0;     
      geometric_mean_radius 0.02920 ft;    
      resistance 0.03180;     
}       

object overhead_line_conductor {     
      name overhead_line_conductor_15;     
      //name Busbar;     
      rating.summer.continuous 600.0;     
      geometric_mean_radius 0.00801 ft;    
      resistance 0.30590;     
}       

object transformer_configuration {     
      name transformer_configuration_438;     
      connect_type WYE_WYE;     
      install_type POLETOP;     
      primary_voltage 12470.000 V;    
      secondary_voltage 480 V;    
      power_rating 15.0;     
      powerB_rating 15.0;     
      resistance 0.00667;     
      reactance 0.03333;     
      shunt_impedance 318.750+333.355j;     
}       

object transformer_configuration {     
      name transformer_configuration_439;     
      connect_type WYE_WYE;     
      install_type POLETOP;     
      primary_voltage 12470.000 V;    
      secondary_voltage 480 V;    
      power_rating 15.0;     
      powerA_rating 15.0;     
      resistance 0.00667;     
      reactance 0.03333;     
      shunt_impedance 318.750+304.680j;     
}       

object transformer_configuration {     
      name transformer_configuration_440;     
      connect_type WYE_WYE;     
      install_type POLETOP;     
      primary_voltage 12470.000 V;    
      secondary_voltage 480 V;    
      power_rating 25.0;     
      powerA_rating 25.0;     
      resistance 0.00400;     
      reactance 0.02000;     
      shunt_impedance 339.610+303.783j;     
}       

object transformer_configuration {     
      name transformer_configuration_441;     
      connect_type WYE_WYE;     
      install_type POLETOP;     
      primary_voltage 12470.000 V;    
      secondary_voltage 480 V;    
      power_rating 5.0;     
      powerB_rating 5.0;     
      resistance 0.01;     
      reactance 0.05;     
      shunt_impedance 297.890+293.255j;     
}       

object transformer_configuration {     
      name transformer_configuration_442;     
      connect_type WYE_WYE;     
      install_type POLETOP;     
      primary_voltage 12470.000 V;    
      secondary_voltage 480 V;    
      power_rating 25.0;     
      powerB_rating 25.0;     
      resistance 0.00400;     
      reactance 0.02000;     
      shunt_impedance 339.610+343.996j;     
}       

object transformer_configuration {     
      name transformer_configuration_443;     
      connect_type WYE_WYE;     
      install_type POLETOP;     
      primary_voltage 12470.000 V;    
      secondary_voltage 480 V;    
      power_rating 10.0;     
      powerB_rating 10.0;     
      resistance 0.01;     
      reactance 0.05;     
      shunt_impedance 308.320+324.027j;     
}       

object transformer_configuration {     
      name transformer_configuration_444;     
      connect_type WYE_WYE;     
      install_type POLETOP;     
      primary_voltage 12470.000 V;    
      secondary_voltage 480 V;    
      power_rating 75.0;     
      powerA_rating 25.0;     
      powerB_rating 25.0;     
      powerC_rating 25.0;     
      resistance 0.00133;     
      reactance 0.00667;     
      shunt_impedance 443.910+442.573j;     
}       

object transformer_configuration {     
      name transformer_configuration_445;     
      connect_type WYE_WYE;     
      install_type POLETOP;     
      primary_voltage 12470.000 V;    
      secondary_voltage 480 V;    
      power_rating 50.0;     
      powerA_rating 25.0;     
      powerB_rating 25.0;     
      resistance 0.00200;     
      reactance 0.01000;     
      shunt_impedance 391.760+373.842j;     
}       

object transformer_configuration {     
      name transformer_configuration_446;     
      connect_type WYE_WYE;     
      install_type POLETOP;     
      primary_voltage 12470.000 V;    
      secondary_voltage 480 V;    
      power_rating 5.0;     
      powerA_rating 5.0;     
      resistance 0.01;     
      reactance 0.05;     
      shunt_impedance 297.890+315.654j;     
}       

object transformer_configuration {     
      name transformer_configuration_447;     
      connect_type WYE_WYE;     
      install_type POLETOP;     
      primary_voltage 12470.000 V;    
      secondary_voltage 480 V;    
      power_rating 45.0;     
      powerA_rating 15.0;     
      powerB_rating 15.0;     
      powerC_rating 15.0;     
      resistance 0.00222;     
      reactance 0.01111;     
      shunt_impedance 381.330+377.001j;     
}       

object transformer_configuration {     
      name transformer_configuration_448;     
      connect_type WYE_WYE;     
      install_type POLETOP;     
      primary_voltage 12470.000 V;    
      secondary_voltage 480 V;    
      power_rating 150.0;     
      powerA_rating 50.0;     
      powerB_rating 50.0;     
      powerC_rating 50.0;     
      resistance 0.00067;     
      reactance 0.00333;     
      shunt_impedance 600.360+648.811j;     
}       

object transformer_configuration {     
      name transformer_configuration_449;     
      connect_type WYE_WYE;     
      install_type POLETOP;     
      primary_voltage 12470.000 V;    
      secondary_voltage 480 V;    
      power_rating 25.0;     
      powerC_rating 25.0;     
      resistance 0.00400;     
      reactance 0.02000;     
      shunt_impedance 339.610+336.560j;     
}       

object transformer_configuration {     
      name transformer_configuration_450;     
      connect_type WYE_WYE;     
      install_type POLETOP;     
      primary_voltage 12470.000 V;    
      secondary_voltage 480 V;    
      power_rating 300.0;     
      powerA_rating 100.0;     
      powerB_rating 100.0;     
      powerC_rating 100.0;     
      resistance 0.00033;     
      reactance 0.00167;     
      shunt_impedance 913.260+912.685j;     
}       

object transformer_configuration {     
      name transformer_configuration_451;     
      connect_type WYE_WYE;     
      install_type POLETOP;     
      primary_voltage 12470.000 V;    
      secondary_voltage 480 V;    
      power_rating 1012.5;     
      powerA_rating 337.5;     
      powerB_rating 337.5;     
      powerC_rating 337.5;     
      resistance 0.00010;     
      reactance 0.00049;     
      shunt_impedance 2399.535+2377.493j;     
}       

object transformer_configuration {     
      name transformer_configuration_452;     
      connect_type WYE_WYE;     
      install_type POLETOP;     
      primary_voltage 12470.000 V;    
      secondary_voltage 480 V;    
      power_rating 15.0;     
      powerC_rating 15.0;     
      resistance 0.00667;     
      reactance 0.03333;     
      shunt_impedance 318.750+289.386j;     
}       

object transformer_configuration {     
      name transformer_configuration_453;     
      connect_type WYE_WYE;     
      install_type POLETOP;     
      primary_voltage 12470.000 V;    
      secondary_voltage 480 V;    
      power_rating 525.0;     
      powerA_rating 175.0;     
      powerB_rating 175.0;     
      powerC_rating 175.0;     
      resistance 0.00019;     
      reactance 0.00095;     
      shunt_impedance 1382.610+1254.449j;     
}       

object transformer_configuration {     
      name transformer_configuration_454;     
      connect_type WYE_WYE;     
      install_type POLETOP;     
      primary_voltage 12470.000 V;    
      secondary_voltage 480 V;    
      power_rating 10.0;     
      powerA_rating 0.0;     
      powerB_rating 0.0;     
      powerC_rating 10.0;     
      resistance 0.01;     
      reactance 0.05;     
      shunt_impedance 308.320+278.684j;     
}       

object transformer_configuration {     
      name transformer_configuration_455;     
      connect_type WYE_WYE;     
      install_type POLETOP;     
      primary_voltage 12470.000 V;    
      secondary_voltage 480 V;    
      power_rating 1500.0;     
      powerA_rating 500.0;     
      powerB_rating 500.0;     
      powerC_rating 500.0;     
      resistance 0.00007;     
      reactance 0.00033;     
      shunt_impedance 3416.460+4026.240j;     
}       

object transformer_configuration {     
      name transformer_configuration_456;     
      connect_type WYE_WYE;     
      install_type POLETOP;     
      primary_voltage 12470.000 V;    
      secondary_voltage 480 V;    
      power_rating 750.0;     
      powerA_rating 250.0;     
      powerB_rating 250.0;     
      powerC_rating 250.0;     
      resistance 0.00013;     
      reactance 0.00067;     
      shunt_impedance 1851.960+1814.886j;     
}       

object triplex_line_conductor {     
      name triplex_4/0 AA;    
      resistance 0.48;     
      geometric_mean_radius 0.0158;     
}       

object triplex_line_configuration {     
      name triplex_line_configuration_1;     
      conductor_1 triplex_4/0 AA;    
      conductor_2 triplex_4/0 AA;    
      conductor_N triplex_4/0 AA;    
      insulation_thickness 0.08;     
      diameter 0.522;     
}       

object underground_line_conductor {     
      name underground_line_conductor_10;     
      //name 1/0 AAC (Conc);   
      rating.summer.continuous 142.0;     
      outer_diameter 1.27;     
      conductor_gmr 0.01142 ft;    
      conductor_diameter 0.362;     
      conductor_resistance 0.88704;     
      neutral_gmr 0.0489686771417213 ft;    
      neutral_resistance 13.86528;     
      neutral_diameter 0.0641;     
      neutral_strands 16.0;     
      shield_gmr 0.00;     
      shield_resistance 0.00;     
}       

object underground_line_conductor {     
      name underground_line_conductor_11;     
      //name 2 AL (Conc);   
      rating.summer.continuous 112.0;     
      outer_diameter 1.09;     
      conductor_gmr 0.0088 ft;    
      conductor_diameter 0.292;     
      conductor_resistance 1.38336;     
      neutral_gmr 0.0348162687755351 ft;    
      neutral_resistance 13.5696;     
      neutral_diameter 0.0641;     
      neutral_strands 6.0;     
      shield_gmr 0.00;     
      shield_resistance 0.00;     
}       

object underground_line_conductor {     
      name underground_line_conductor_12;     
      //name 4/0 AAC (Conc);   
      rating.summer.continuous 214.0;     
      outer_diameter 1.32;     
      conductor_gmr 0.0177 ft;    
      conductor_diameter 0.528;     
      conductor_resistance 0.433488;     
      neutral_gmr 0.0485380344339232 ft;    
      neutral_resistance 13.5696;     
      neutral_diameter 0.0641;     
      neutral_strands 11.0;     
      shield_gmr 0.00;     
      shield_resistance 0.00;     
}       

object underground_line_conductor {     
      name underground_line_conductor_13;     
      //name 1000 AAC (Tape);   
      rating.summer.continuous 775.0;     
      outer_diameter 1.87;     
      conductor_gmr 0.0371 ft;    
      conductor_diameter 1.15;     
      conductor_resistance 0.0222;     
      neutral_gmr 0.0732739718442675 ft;    
      neutral_resistance 0.05;     
      neutral_diameter 0.102;     
      neutral_strands 20.0;     
      shield_gmr 0.00;     
      shield_resistance 0.00;     
}       

object transformer_configuration {
     name trans_config_to_feeder;
     connect_type WYE_WYE;
     install_type PADMOUNT;
     primary_voltage 230000;
     secondary_voltage 12470.000;
     power_rating 5.1 MVA;
     impedance 0.00033+0.0022j;
}

//Start actual feeder

object meter {
     name network_node;
     bustype SWING;
     nominal_voltage 230000;
     object player {
          property voltage_A;
          loop 100;
          file V_A.player;
     };
     object player {
          property voltage_B;
          loop 100;
          file V_B.player;
     };
     object player {
          property voltage_C;
          loop 100;
          file V_C.player;
     };
     phases ABCN;
}

object transformer {
     name substation_transformer;
     from network_node;
     to R3-12-47-2_node_267;
     phases ABCN;
     configuration trans_config_to_feeder;
}

        
object regulator {     
      name R3-12-47-2_reg_1;     
      from R3-12-47-2_node_267;     
      to R3-12-47-2_meter_63;     
      phases ABCN;     
      configuration feeder_reg_cfg;     
}       
object fuse {     
      name R3-12-47-2_fuse_1;     
      phases ABCN;     
      from R3-12-47-2_node_105;     
      to R3-12-47-2_node_88;     
      current_limit 50000;// 100;    
      status CLOSED;     
}       
object fuse {     
      name R3-12-47-2_fuse_2;     
      phases ABCN;     
      from R3-12-47-2_node_88;     
      to R3-12-47-2_node_87;     
      current_limit 50000;// 200;    
      status CLOSED;     
}       
object fuse {     
      name R3-12-47-2_fuse_3;     
      phases BN;     
      from R3-12-47-2_node_196;     
      to R3-12-47-2_node_90;     
      current_limit 50000;// 40;    
      status CLOSED;     
}       
object fuse {     
      name R3-12-47-2_fuse_4;     
      phases ABCN;     
      from R3-12-47-2_node_201;     
      to R3-12-47-2_node_81;     
      current_limit 50000;// 25;    
      status CLOSED;     
}       
object fuse {     
      name R3-12-47-2_fuse_5;     
      phases ABCN;     
      from R3-12-47-2_node_202;     
      to R3-12-47-2_node_82;     
      current_limit 50000;// 25;    
      status CLOSED;     
}       
object fuse {     
      name R3-12-47-2_fuse_6;     
      phases ABCN;     
      from R3-12-47-2_node_227;     
      to R3-12-47-2_node_84;     
      current_limit 50000;// 65;    
      status CLOSED;     
}       
object fuse {     
      name R3-12-47-2_fuse_7;     
      phases BN;     
      from R3-12-47-2_node_217;     
      to R3-12-47-2_node_95;     
      current_limit 50000;// 25;    
      status CLOSED;     
}       
object fuse {     
      name R3-12-47-2_fuse_8;     
      phases ABCN;     
      from R3-12-47-2_node_198;     
      to R3-12-47-2_node_91;     
      current_limit 50000;// 40;    
      status CLOSED;     
}       
object fuse {     
      name R3-12-47-2_fuse_9;     
      phases ABCN;     
      from R3-12-47-2_node_198;     
      to R3-12-47-2_node_83;     
      current_limit 50000;// 80;    
      status CLOSED;     
}       
object fuse {     
      name R3-12-47-2_fuse_10;     
      phases ABCN;     
      from R3-12-47-2_node_209;     
      to R3-12-47-2_node_85;     
      current_limit 50000;// 65;    
      status CLOSED;     
}       
object fuse {     
      name R3-12-47-2_fuse_11;     
      phases ABCN;     
      from R3-12-47-2_node_211;     
      to R3-12-47-2_node_93;     
      current_limit 50000;// 100;    
      status CLOSED;     
}       
object fuse {     
      name R3-12-47-2_fuse_12;     
      phases ABCN;     
      from R3-12-47-2_node_184;     
      to R3-12-47-2_node_89;     
      current_limit 50000;// 65;    
      status CLOSED;     
}       
object fuse {     
      name R3-12-47-2_fuse_13;     
      phases ABCN;     
      from R3-12-47-2_node_210;     
      to R3-12-47-2_node_92;     
      current_limit 50000;// 65;    
      status CLOSED;     
}       
object fuse {     
      name R3-12-47-2_fuse_14;     
      phases ABCN;     
      from R3-12-47-2_node_213;     
      to R3-12-47-2_node_94;     
      current_limit 50000;// 65;    
      status CLOSED;     
}       
object fuse {     
      name R3-12-47-2_fuse_15;     
      phases ABCN;     
      from R3-12-47-2_node_215;     
      to R3-12-47-2_node_86;     
      current_limit 50000;// 65;    
      status CLOSED;     
}       
object fuse {     
      name R3-12-47-2_fuse_16;     
      phases BN;     
      from R3-12-47-2_node_115;     
      to R3-12-47-2_node_80;     
      current_limit 50000;// 118;    
      status CLOSED;     
}       
object fuse {     
      name R3-12-47-2_fuse_17;     
      phases ABCN;     
      from R3-12-47-2_node_128;     
      to R3-12-47-2_node_73;     
      current_limit 50000;// 300;    
      status CLOSED;     
}       
object fuse {     
      name R3-12-47-2_fuse_18;     
      phases ABCN;     
      from R3-12-47-2_node_3;     
      to R3-12-47-2_node_78;     
      current_limit 50000;// 90;    
      status CLOSED;     
}       
object fuse {     
      name R3-12-47-2_fuse_19;     
      phases ABCN;     
      from R3-12-47-2_node_2;     
      to R3-12-47-2_node_79;     
      current_limit 50000;// 18;    
      status CLOSED;     
}       
object fuse {     
      name R3-12-47-2_fuse_20;     
      phases ABCN;     
      from R3-12-47-2_node_6;     
      to R3-12-47-2_node_72;     
      current_limit 50000;// 300;    
      status CLOSED;     
}       
object fuse {     
      name R3-12-47-2_fuse_21;     
      phases ABCN;     
      from R3-12-47-2_node_8;     
      to R3-12-47-2_node_76;     
      current_limit 50000;// 300;    
      status CLOSED;     
}       

object node {
      name R3-12-47-2_load_1;     
      parent R3-12-47-2_meter_1;     
      phases BN;     
      nominal_voltage 480.00;
}


object node {
      name R3-12-47-2_load_2;     
      parent R3-12-47-2_meter_2;     
      phases AN;     
      nominal_voltage 480.00;
}


object node {
      name R3-12-47-2_load_3;     
      parent R3-12-47-2_meter_3;     
      phases AN;     
      nominal_voltage 480.00;
}


object node {
      name R3-12-47-2_load_4;     
      parent R3-12-47-2_meter_4;     
      phases BN;     
      nominal_voltage 480.00;
}


object node {
      name R3-12-47-2_load_5;     
      parent R3-12-47-2_meter_5;     
      phases BN;     
      nominal_voltage 480.00;
}


object node {
      name R3-12-47-2_load_6;     
      parent R3-12-47-2_meter_6;     
      phases AN;     
      nominal_voltage 480.00;
}


object node {
      name R3-12-47-2_load_7;     
      parent R3-12-47-2_meter_7;     
      phases AN;     
      nominal_voltage 480.00;
}


object node {
      name R3-12-47-2_load_8;     
      parent R3-12-47-2_meter_8;     
      phases BN;     
      nominal_voltage 480.00;
}


object node {
      name R3-12-47-2_load_9;     
      parent R3-12-47-2_meter_9;     
      phases ABCN;     
      nominal_voltage 480.00;
}


object node {
      name R3-12-47-2_load_10;     
      parent R3-12-47-2_meter_10;     
      phases ABN;     
      nominal_voltage 480.00;
}


object node {
      name R3-12-47-2_load_11;     
      parent R3-12-47-2_meter_11;     
      phases AN;     
      nominal_voltage 480.00;
}


object node {
      name R3-12-47-2_load_12;     
      parent R3-12-47-2_meter_12;     
      phases ABN;     
      nominal_voltage 480.00;
}


object node {
      name R3-12-47-2_load_13;     
      parent R3-12-47-2_meter_13;     
      phases AN;     
      nominal_voltage 480.00;
}


object node {
      name R3-12-47-2_load_14;     
      parent R3-12-47-2_meter_14;     
      phases ABCN;     
      nominal_voltage 480.00;
}


object node {
      name R3-12-47-2_load_15;     
      parent R3-12-47-2_meter_15;     
      phases ABCN;     
      nominal_voltage 480.00;
}


object node {
      name R3-12-47-2_load_16;     
      parent R3-12-47-2_meter_16;     
      phases BN;     
      nominal_voltage 480.00;
}


object node {
      name R3-12-47-2_load_17;     
      parent R3-12-47-2_meter_17;     
      phases ABCN;     
      nominal_voltage 480.00;
}


object node {
      name R3-12-47-2_load_18;     
      parent R3-12-47-2_meter_18;     
      phases ABCN;     
      nominal_voltage 480.00;
}


object node {
      name R3-12-47-2_load_19;     
      parent R3-12-47-2_meter_19;     
      phases ABCN;     
      nominal_voltage 480.00;
}


object node {
      name R3-12-47-2_load_20;     
      parent R3-12-47-2_meter_20;     
      phases ABCN;     
      nominal_voltage 480.00;
}


object node {
      name R3-12-47-2_load_21;     
      parent R3-12-47-2_meter_21;     
      phases BN;     
      nominal_voltage 480.00;
}


object node {
      name R3-12-47-2_load_22;     
      parent R3-12-47-2_meter_22;     
      phases CN;     
      nominal_voltage 480.00;
}


object node {
      name R3-12-47-2_load_23;     
      parent R3-12-47-2_meter_23;     
      phases CN;     
      nominal_voltage 480.00;
}


object node {
      name R3-12-47-2_load_24;     
      parent R3-12-47-2_meter_24;     
      phases ABCN;     
      nominal_voltage 480.00;
}


object node {
      name R3-12-47-2_load_25;     
      parent R3-12-47-2_meter_25;     
      phases ABCN;     
      nominal_voltage 480.00;
}


object node {
      name R3-12-47-2_load_26;     
      parent R3-12-47-2_meter_26;     
      phases AN;     
      nominal_voltage 480.00;
}


object node {
      name R3-12-47-2_load_27;     
      parent R3-12-47-2_meter_27;     
      phases ABCN;     
      nominal_voltage 480.00;
}


object node {
      name R3-12-47-2_load_28;     
      parent R3-12-47-2_meter_28;     
      phases ABCN;     
      nominal_voltage 480.00;
}


object node {
      name R3-12-47-2_load_29;     
      parent R3-12-47-2_meter_29;     
      phases ABCN;     
      nominal_voltage 480.00;
}


object node {
      name R3-12-47-2_load_30;     
      parent R3-12-47-2_meter_30;     
      phases AN;     
      nominal_voltage 480.00;
}


object node {
      name R3-12-47-2_load_31;     
      parent R3-12-47-2_meter_31;     
      phases ABCN;     
      nominal_voltage 480.00;
}


object node {
      name R3-12-47-2_load_32;     
      parent R3-12-47-2_meter_32;     
      phases ABCN;     
      nominal_voltage 480.00;
}


object node {
      name R3-12-47-2_load_33;     
      parent R3-12-47-2_meter_33;     
      phases AN;     
      nominal_voltage 480.00;
}


object node {
      name R3-12-47-2_load_34;     
      parent R3-12-47-2_meter_34;     
      phases ABCN;     
      nominal_voltage 480.00;
}


object node {
      name R3-12-47-2_load_35;     
      parent R3-12-47-2_meter_35;     
      phases CN;     
      nominal_voltage 480.00;
}


object node {
      name R3-12-47-2_load_36;     
      parent R3-12-47-2_meter_36;     
      phases CN;     
      nominal_voltage 480.00;
}


object node {
      name R3-12-47-2_load_37;     
      parent R3-12-47-2_meter_37;     
      phases ABCN;     
      nominal_voltage 480.00;
}


object node {
      name R3-12-47-2_load_38;     
      parent R3-12-47-2_meter_38;     
      phases BN;     
      nominal_voltage 480.00;
}


object node {
      name R3-12-47-2_load_39;     
      parent R3-12-47-2_meter_39;     
      phases ABCN;     
      nominal_voltage 480.00;
}


object node {
      name R3-12-47-2_load_40;     
      parent R3-12-47-2_meter_40;     
      phases BN;     
      nominal_voltage 480.00;
}


object node {
      name R3-12-47-2_load_41;     
      parent R3-12-47-2_meter_41;     
      phases ABCN;     
      nominal_voltage 480.00;
}


object node {
      name R3-12-47-2_load_42;     
      parent R3-12-47-2_meter_42;     
      phases BN;     
      nominal_voltage 480.00;
}


object node {
      name R3-12-47-2_load_43;     
      parent R3-12-47-2_meter_43;     
      phases ABCN;     
      nominal_voltage 480.00;
}


object node {
      name R3-12-47-2_load_44;     
      parent R3-12-47-2_meter_44;     
      phases BN;     
      nominal_voltage 480.00;
}


object node {
      name R3-12-47-2_load_45;     
      parent R3-12-47-2_meter_45;     
      phases ABCN;     
      nominal_voltage 480.00;
}


object node {
      name R3-12-47-2_load_46;     
      parent R3-12-47-2_meter_46;     
      phases ABCN;     
      nominal_voltage 480.00;
}


object node {
      name R3-12-47-2_load_47;     
      parent R3-12-47-2_meter_47;     
      phases ABCN;     
      nominal_voltage 480.00;
}


object node {
      name R3-12-47-2_load_48;     
      parent R3-12-47-2_meter_48;     
      phases AN;     
      nominal_voltage 480.00;
}


object node {
      name R3-12-47-2_load_49;     
      parent R3-12-47-2_meter_49;     
      phases ABCN;     
      nominal_voltage 480.00;
}


object node {
      name R3-12-47-2_load_50;     
      parent R3-12-47-2_meter_50;     
      phases ABCN;     
      nominal_voltage 480.00;
}


object node {
      name R3-12-47-2_load_51;     
      parent R3-12-47-2_meter_51;     
      phases ABCN;     
      nominal_voltage 480.00;
}


object node {
      name R3-12-47-2_load_52;     
      parent R3-12-47-2_meter_52;     
      phases ABCN;     
      nominal_voltage 480.00;
}


object node {
      name R3-12-47-2_load_53;     
      parent R3-12-47-2_meter_53;     
      phases ABCN;     
      nominal_voltage 480.00;
}


object node {
      name R3-12-47-2_load_54;     
      parent R3-12-47-2_meter_54;     
      phases ABCN;     
      nominal_voltage 480.00;
}


object node {
      name R3-12-47-2_load_55;     
      parent R3-12-47-2_meter_55;     
      phases ABCN;     
      nominal_voltage 480.00;
}


object node {
      name R3-12-47-2_load_56;     
      parent R3-12-47-2_meter_56;     
      phases ABCN;     
      nominal_voltage 480.00;
}


object node {
      name R3-12-47-2_load_57;     
      parent R3-12-47-2_meter_57;     
      phases ABCN;     
      nominal_voltage 480.00;
}


object node {
      name R3-12-47-2_load_58;     
      parent R3-12-47-2_meter_58;     
      phases ABCN;     
      nominal_voltage 480.00;
}


object node {
      name R3-12-47-2_load_59;     
      parent R3-12-47-2_meter_59;     
      phases ABCN;     
      nominal_voltage 480.00;
}


object node {
      name R3-12-47-2_load_60;     
      parent R3-12-47-2_meter_60;     
      phases ABCN;     
      nominal_voltage 480.00;
}


object node {
      name R3-12-47-2_load_61;     
      parent R3-12-47-2_meter_61;     
      phases ABCN;     
      nominal_voltage 480.00;
}


object node {
      name R3-12-47-2_load_62;     
      parent R3-12-47-2_meter_62;     
      phases ABCN;     
      nominal_voltage 480.00;
}

object meter {     
      name R3-12-47-2_meter_1;     
      phases BN;     
      voltage_B -3600-6235j;     
      nominal_voltage 480;     
}       
object meter {     
      name R3-12-47-2_meter_2;     
      phases AN;     
      voltage_A 7200+0.0j;     
      nominal_voltage 480;     
}       
object meter {     
      name R3-12-47-2_meter_3;     
      phases AN;     
      voltage_A 7200+0.0j;     
      nominal_voltage 480;     
}       
object meter {     
      name R3-12-47-2_meter_4;     
      phases BN;     
      voltage_B -3600-6235j;     
      nominal_voltage 480;     
}       
object meter {     
      name R3-12-47-2_meter_5;     
      phases BN;     
      voltage_B -3600-6235j;     
      nominal_voltage 480;     
}       
object meter {     
      name R3-12-47-2_meter_6;     
      phases AN;     
      voltage_A 7200+0.0j;     
      nominal_voltage 480;     
}       
object meter {     
      name R3-12-47-2_meter_7;     
      phases AN;     
      voltage_A 7200+0.0j;     
      nominal_voltage 480;     
}       
object meter {     
      name R3-12-47-2_meter_8;     
      phases BN;     
      voltage_B -3600-6235j;     
      nominal_voltage 480;     
}       
object meter {     
      name R3-12-47-2_meter_9;     
      phases ABCN;     
      voltage_A 7200+0.0j;     
      voltage_B -3600-6235j;     
      voltage_C -3600+6235j;     
      nominal_voltage 480;     
}       
object meter {     
      name R3-12-47-2_meter_10;     
      phases ABN;     
      voltage_A 7200+0.0j;     
      voltage_B -3600-6235j;     
      nominal_voltage 480;     
}       
object meter {     
      name R3-12-47-2_meter_11;     
      phases AN;     
      voltage_A 7200+0.0j;     
      nominal_voltage 480;     
}       
object meter {     
      name R3-12-47-2_meter_12;     
      phases ABN;     
      voltage_A 7200+0.0j;     
      voltage_B -3600-6235j;     
      nominal_voltage 480;     
}       
object meter {     
      name R3-12-47-2_meter_13;     
      phases AN;     
      voltage_A 7200+0.0j;     
      nominal_voltage 480;     
}       
object meter {     
      name R3-12-47-2_meter_14;     
      phases ABCN;     
      voltage_A 7200+0.0j;     
      voltage_B -3600-6235j;     
      voltage_C -3600+6235j;     
      nominal_voltage 480;     
}       
object meter {     
      name R3-12-47-2_meter_15;     
      phases ABCN;     
      voltage_A 7200+0.0j;     
      voltage_B -3600-6235j;     
      voltage_C -3600+6235j;     
      nominal_voltage 480;     
}       
object meter {     
      name R3-12-47-2_meter_16;     
      phases BN;     
      voltage_B -3600-6235j;     
      nominal_voltage 480;     
}       
object meter {     
      name R3-12-47-2_meter_17;     
      phases ABCN;     
      voltage_A 7200+0.0j;     
      voltage_B -3600-6235j;     
      voltage_C -3600+6235j;     
      nominal_voltage 480;     
}       
object meter {     
      name R3-12-47-2_meter_18;     
      phases ABCN;     
      voltage_A 7200+0.0j;     
      voltage_B -3600-6235j;     
      voltage_C -3600+6235j;     
      nominal_voltage 480;     
}       
object meter {     
      name R3-12-47-2_meter_19;     
      phases ABCN;     
      voltage_A 7200+0.0j;     
      voltage_B -3600-6235j;     
      voltage_C -3600+6235j;     
      nominal_voltage 480;     
}       
object meter {     
      name R3-12-47-2_meter_20;     
      phases ABCN;     
      voltage_A 7200+0.0j;     
      voltage_B -3600-6235j;     
      voltage_C -3600+6235j;     
      nominal_voltage 480;     
}       
object meter {     
      name R3-12-47-2_meter_21;     
      phases BN;     
      voltage_B -3600-6235j;     
      nominal_voltage 480;     
}       
object meter {     
      name R3-12-47-2_meter_22;     
      phases CN;     
      voltage_C -3600+6235j;     
      nominal_voltage 480;     
}       
object meter {     
      name R3-12-47-2_meter_23;     
      phases CN;     
      voltage_C -3600+6235j;     
      nominal_voltage 480;     
}       
object meter {     
      name R3-12-47-2_meter_24;     
      phases ABCN;     
      voltage_A 7200+0.0j;     
      voltage_B -3600-6235j;     
      voltage_C -3600+6235j;     
      nominal_voltage 480;     
}       
object meter {     
      name R3-12-47-2_meter_25;     
      phases ABCN;     
      voltage_A 7200+0.0j;     
      voltage_B -3600-6235j;     
      voltage_C -3600+6235j;     
      nominal_voltage 480;     
}       
object meter {     
      name R3-12-47-2_meter_26;     
      phases AN;     
      voltage_A 7200+0.0j;     
      nominal_voltage 480;     
}       
object meter {     
      name R3-12-47-2_meter_27;     
      phases ABCN;     
      voltage_A 7200+0.0j;     
      voltage_B -3600-6235j;     
      voltage_C -3600+6235j;     
      nominal_voltage 480;     
}       
object meter {     
      name R3-12-47-2_meter_28;     
      phases ABCN;     
      voltage_A 7200+0.0j;     
      voltage_B -3600-6235j;     
      voltage_C -3600+6235j;     
      nominal_voltage 480;     
}       
object meter {     
      name R3-12-47-2_meter_29;     
      phases ABCN;     
      voltage_A 7200+0.0j;     
      voltage_B -3600-6235j;     
      voltage_C -3600+6235j;     
      nominal_voltage 480;     
}       
object meter {     
      name R3-12-47-2_meter_30;     
      phases AN;     
      voltage_A 7200+0.0j;     
      nominal_voltage 480;     
}       
object meter {     
      name R3-12-47-2_meter_31;     
      phases ABCN;     
      voltage_A 7200+0.0j;     
      voltage_B -3600-6235j;     
      voltage_C -3600+6235j;     
      nominal_voltage 480;     
}       
object meter {     
      name R3-12-47-2_meter_32;     
      phases ABCN;     
      voltage_A 7200+0.0j;     
      voltage_B -3600-6235j;     
      voltage_C -3600+6235j;     
      nominal_voltage 480;     
}       
object meter {     
      name R3-12-47-2_meter_33;     
      phases AN;     
      voltage_A 7200+0.0j;     
      nominal_voltage 480;     
}       
object meter {     
      name R3-12-47-2_meter_34;     
      phases ABCN;     
      voltage_A 7200+0.0j;     
      voltage_B -3600-6235j;     
      voltage_C -3600+6235j;     
      nominal_voltage 480;     
}       
object meter {     
      name R3-12-47-2_meter_35;     
      phases CN;     
      voltage_C -3600+6235j;     
      nominal_voltage 480;     
}       
object meter {     
      name R3-12-47-2_meter_36;     
      phases CN;     
      voltage_C -3600+6235j;     
      nominal_voltage 480;     
}       
object meter {     
      name R3-12-47-2_meter_37;     
      phases ABCN;     
      voltage_A 7200+0.0j;     
      voltage_B -3600-6235j;     
      voltage_C -3600+6235j;     
      nominal_voltage 480;     
}       
object meter {     
      name R3-12-47-2_meter_38;     
      phases BN;     
      voltage_B -3600-6235j;     
      nominal_voltage 480;     
}       
object meter {     
      name R3-12-47-2_meter_39;     
      phases ABCN;     
      voltage_A 7200+0.0j;     
      voltage_B -3600-6235j;     
      voltage_C -3600+6235j;     
      nominal_voltage 480;     
}       
object meter {     
      name R3-12-47-2_meter_40;     
      phases BN;     
      voltage_B -3600-6235j;     
      nominal_voltage 480;     
}       
object meter {     
      name R3-12-47-2_meter_41;     
      phases ABCN;     
      voltage_A 7200+0.0j;     
      voltage_B -3600-6235j;     
      voltage_C -3600+6235j;     
      nominal_voltage 480;     
}       
object meter {     
      name R3-12-47-2_meter_42;     
      phases BN;     
      voltage_B -3600-6235j;     
      nominal_voltage 480;     
}       
object meter {     
      name R3-12-47-2_meter_43;     
      phases ABCN;     
      voltage_A 7200+0.0j;     
      voltage_B -3600-6235j;     
      voltage_C -3600+6235j;     
      nominal_voltage 480;     
}       
object meter {     
      name R3-12-47-2_meter_44;     
      phases BN;     
      voltage_B -3600-6235j;     
      nominal_voltage 480;     
}       
object meter {     
      name R3-12-47-2_meter_45;     
      phases ABCN;     
      voltage_A 7200+0.0j;     
      voltage_B -3600-6235j;     
      voltage_C -3600+6235j;     
      nominal_voltage 480;     
}       
object meter {     
      name R3-12-47-2_meter_46;     
      phases ABCN;     
      voltage_A 7200+0.0j;     
      voltage_B -3600-6235j;     
      voltage_C -3600+6235j;     
      nominal_voltage 480;     
}       
object meter {     
      name R3-12-47-2_meter_47;     
      phases ABCN;     
      voltage_A 7200+0.0j;     
      voltage_B -3600-6235j;     
      voltage_C -3600+6235j;     
      nominal_voltage 480;     
}       
object meter {     
      name R3-12-47-2_meter_48;     
      phases AN;     
      voltage_A 7200+0.0j;     
      nominal_voltage 480;     
}       
object meter {     
      name R3-12-47-2_meter_49;     
      phases ABCN;     
      voltage_A 7200+0.0j;     
      voltage_B -3600-6235j;     
      voltage_C -3600+6235j;     
      nominal_voltage 480;     
}       
object meter {     
      name R3-12-47-2_meter_50;     
      phases ABCN;     
      voltage_A 7200+0.0j;     
      voltage_B -3600-6235j;     
      voltage_C -3600+6235j;     
      nominal_voltage 480;     
}       
object meter {     
      name R3-12-47-2_meter_51;     
      phases ABCN;     
      voltage_A 7200+0.0j;     
      voltage_B -3600-6235j;     
      voltage_C -3600+6235j;     
      nominal_voltage 480;     
}       
object meter {     
      name R3-12-47-2_meter_52;     
      phases ABCN;     
      voltage_A 7200+0.0j;     
      voltage_B -3600-6235j;     
      voltage_C -3600+6235j;     
      nominal_voltage 480;     
}       
object meter {     
      name R3-12-47-2_meter_53;     
      phases ABCN;     
      voltage_A 7200+0.0j;     
      voltage_B -3600-6235j;     
      voltage_C -3600+6235j;     
      nominal_voltage 480;     
}       
object meter {     
      name R3-12-47-2_meter_54;     
      phases ABCN;     
      voltage_A 7200+0.0j;     
      voltage_B -3600-6235j;     
      voltage_C -3600+6235j;     
      nominal_voltage 480;     
}       
object meter {     
      name R3-12-47-2_meter_55;     
      phases ABCN;     
      voltage_A 7200+0.0j;     
      voltage_B -3600-6235j;     
      voltage_C -3600+6235j;     
      nominal_voltage 480;     
}       
object meter {     
      name R3-12-47-2_meter_56;     
      phases ABCN;     
      voltage_A 7200+0.0j;     
      voltage_B -3600-6235j;     
      voltage_C -3600+6235j;     
      nominal_voltage 480;     
}       
object meter {     
      name R3-12-47-2_meter_57;     
      phases ABCN;     
      voltage_A 7200+0.0j;     
      voltage_B -3600-6235j;     
      voltage_C -3600+6235j;     
      nominal_voltage 480;     
}       
object meter {     
      name R3-12-47-2_meter_58;     
      phases ABCN;     
      voltage_A 7200+0.0j;     
      voltage_B -3600-6235j;     
      voltage_C -3600+6235j;     
      nominal_voltage 480;     
}       
object meter {     
      name R3-12-47-2_meter_59;     
      phases ABCN;     
      voltage_A 7200+0.0j;     
      voltage_B -3600-6235j;     
      voltage_C -3600+6235j;     
      nominal_voltage 480;     
}       
object meter {     
      name R3-12-47-2_meter_60;     
      phases ABCN;     
      voltage_A 7200+0.0j;     
      voltage_B -3600-6235j;     
      voltage_C -3600+6235j;     
      nominal_voltage 480;     
}       
object meter {     
      name R3-12-47-2_meter_61;     
      phases ABCN;     
      voltage_A 7200+0.0j;     
      voltage_B -3600-6235j;     
      voltage_C -3600+6235j;     
      nominal_voltage 480;     
}       
object meter {     
      name R3-12-47-2_meter_62;     
      phases ABCN;     
      voltage_A 7200+0.0j;     
      voltage_B -3600-6235j;     
      voltage_C -3600+6235j;     
      nominal_voltage 480;     
}       
object meter {     
      name R3-12-47-2_meter_63;     
      phases ABCN;     
      nominal_voltage 480;     
      voltage_A 7200+0.0j;     
      voltage_B -3600-6235j;     
      voltage_C -3600+6235j;     
}       
object node {     
      name R3-12-47-2_node_1;     
      parent R3-12-47-2_meter_63;     
      phases ABCN;     
      voltage_A 7200+0.0j;     
      voltage_B -3600-6235j;     
      voltage_C -3600+6235j;     
      nominal_voltage 7200;     
}       
object node {     
      name R3-12-47-2_node_2;     
      phases ABCN;     
      voltage_A 7200+0.0j;     
      voltage_B -3600-6235j;     
      voltage_C -3600+6235j;     
      nominal_voltage 7200;     
}       
object node {     
      name R3-12-47-2_node_3;     
      phases ABCN;     
      voltage_A 7200+0.0j;     
      voltage_B -3600-6235j;     
      voltage_C -3600+6235j;     
      nominal_voltage 7200;     
}       
object node {     
      name R3-12-47-2_node_4;     
      phases ABCN;     
      voltage_A 7200+0.0j;     
      voltage_B -3600-6235j;     
      voltage_C -3600+6235j;     
      nominal_voltage 7200;     
}       
object node {     
      name R3-12-47-2_node_5;     
      phases ABCN;     
      voltage_A 7200+0.0j;     
      voltage_B -3600-6235j;     
      voltage_C -3600+6235j;     
      nominal_voltage 7200;     
}       
object node {     
      name R3-12-47-2_node_6;     
      phases ABCN;     
      voltage_A 7200+0.0j;     
      voltage_B -3600-6235j;     
      voltage_C -3600+6235j;     
      nominal_voltage 7200;     
}       
object node {     
      name R3-12-47-2_node_7;     
      phases ABCN;     
      voltage_A 7200+0.0j;     
      voltage_B -3600-6235j;     
      voltage_C -3600+6235j;     
      nominal_voltage 7200;     
}       
object node {     
      name R3-12-47-2_node_8;     
      phases ABCN;     
      voltage_A 7200+0.0j;     
      voltage_B -3600-6235j;     
      voltage_C -3600+6235j;     
      nominal_voltage 7200;     
}       
object node {     
      name R3-12-47-2_node_9;     
      phases BN;     
      voltage_B -3600-6235j;     
      nominal_voltage 7200;     
}       
object node {     
      name R3-12-47-2_node_10;     
      phases ABCN;     
      voltage_A 7200+0.0j;     
      voltage_B -3600-6235j;     
      voltage_C -3600+6235j;     
      nominal_voltage 7200;     
}       
object node {     
      name R3-12-47-2_node_11;     
      phases AN;     
      voltage_A 7200+0.0j;     
      nominal_voltage 7200;     
}       
object node {     
      name R3-12-47-2_node_12;     
      phases BN;     
      voltage_B -3600-6235j;     
      nominal_voltage 7200;     
}       
object node {     
      name R3-12-47-2_node_13;     
      phases ABCN;     
      voltage_A 7200+0.0j;     
      voltage_B -3600-6235j;     
      voltage_C -3600+6235j;     
      nominal_voltage 7200;     
}       
object node {     
      name R3-12-47-2_node_14;     
      phases ABCN;     
      voltage_A 7200+0.0j;     
      voltage_B -3600-6235j;     
      voltage_C -3600+6235j;     
      nominal_voltage 7200;     
}       
object node {     
      name R3-12-47-2_node_15;     
      phases AN;     
      voltage_A 7200+0.0j;     
      nominal_voltage 7200;     
}       
object node {     
      name R3-12-47-2_node_16;     
      phases ABCN;     
      voltage_A 7200+0.0j;     
      voltage_B -3600-6235j;     
      voltage_C -3600+6235j;     
      nominal_voltage 7200;     
}       
object node {     
      name R3-12-47-2_node_17;     
      phases CN;     
      voltage_C -3600+6235j;     
      nominal_voltage 7200;     
}       
object node {     
      name R3-12-47-2_node_18;     
      phases ABCN;     
      voltage_A 7200+0.0j;     
      voltage_B -3600-6235j;     
      voltage_C -3600+6235j;     
      nominal_voltage 7200;     
}       
object node {     
      name R3-12-47-2_node_19;     
      phases BN;     
      voltage_B -3600-6235j;     
      nominal_voltage 7200;     
}       
object node {     
      name R3-12-47-2_node_20;     
      phases ABCN;     
      voltage_A 7200+0.0j;     
      voltage_B -3600-6235j;     
      voltage_C -3600+6235j;     
      nominal_voltage 7200;     
}       
object node {     
      name R3-12-47-2_node_21;     
      phases BN;     
      voltage_B -3600-6235j;     
      nominal_voltage 7200;     
}       
object node {     
      name R3-12-47-2_node_22;     
      phases ABCN;     
      voltage_A 7200+0.0j;     
      voltage_B -3600-6235j;     
      voltage_C -3600+6235j;     
      nominal_voltage 7200;     
}       
object node {     
      name R3-12-47-2_node_23;     
      phases BN;     
      voltage_B -3600-6235j;     
      nominal_voltage 7200;     
}       
object node {     
      name R3-12-47-2_node_24;     
      phases ABCN;     
      voltage_A 7200+0.0j;     
      voltage_B -3600-6235j;     
      voltage_C -3600+6235j;     
      nominal_voltage 7200;     
}       
object node {     
      name R3-12-47-2_node_25;     
      phases ABCN;     
      voltage_A 7200+0.0j;     
      voltage_B -3600-6235j;     
      voltage_C -3600+6235j;     
      nominal_voltage 7200;     
}       
object node {     
      name R3-12-47-2_node_26;     
      phases BN;     
      voltage_B -3600-6235j;     
      nominal_voltage 7200;     
}       
object node {     
      name R3-12-47-2_node_27;     
      phases ABCN;     
      voltage_A 7200+0.0j;     
      voltage_B -3600-6235j;     
      voltage_C -3600+6235j;     
      nominal_voltage 7200;     
}       
object node {     
      name R3-12-47-2_node_28;     
      phases AN;     
      voltage_A 7200+0.0j;     
      nominal_voltage 7200;     
}       
object node {     
      name R3-12-47-2_node_29;     
      phases ABCN;     
      voltage_A 7200+0.0j;     
      voltage_B -3600-6235j;     
      voltage_C -3600+6235j;     
      nominal_voltage 7200;     
}       
object node {     
      name R3-12-47-2_node_30;     
      phases ABCN;     
      voltage_A 7200+0.0j;     
      voltage_B -3600-6235j;     
      voltage_C -3600+6235j;     
      nominal_voltage 7200;     
}       
object node {     
      name R3-12-47-2_node_31;     
      phases ABCN;     
      voltage_A 7200+0.0j;     
      voltage_B -3600-6235j;     
      voltage_C -3600+6235j;     
      nominal_voltage 7200;     
}       
object node {     
      name R3-12-47-2_node_32;     
      phases ABCN;     
      voltage_A 7200+0.0j;     
      voltage_B -3600-6235j;     
      voltage_C -3600+6235j;     
      nominal_voltage 7200;     
}       
object node {     
      name R3-12-47-2_node_33;     
      phases ABCN;     
      voltage_A 7200+0.0j;     
      voltage_B -3600-6235j;     
      voltage_C -3600+6235j;     
      nominal_voltage 7200;     
}       
object node {     
      name R3-12-47-2_node_34;     
      phases ABCN;     
      voltage_A 7200+0.0j;     
      voltage_B -3600-6235j;     
      voltage_C -3600+6235j;     
      nominal_voltage 7200;     
}       
object node {     
      name R3-12-47-2_node_35;     
      phases ABCN;     
      voltage_A 7200+0.0j;     
      voltage_B -3600-6235j;     
      voltage_C -3600+6235j;     
      nominal_voltage 7200;     
}       
object node {     
      name R3-12-47-2_node_36;     
      phases ABCN;     
      voltage_A 7200+0.0j;     
      voltage_B -3600-6235j;     
      voltage_C -3600+6235j;     
      nominal_voltage 7200;     
}       
object node {     
      name R3-12-47-2_node_37;     
      phases ABCN;     
      voltage_A 7200+0.0j;     
      voltage_B -3600-6235j;     
      voltage_C -3600+6235j;     
      nominal_voltage 7200;     
}       
object node {     
      name R3-12-47-2_node_38;     
      phases ABCN;     
      voltage_A 7200+0.0j;     
      voltage_B -3600-6235j;     
      voltage_C -3600+6235j;     
      nominal_voltage 7200;     
}       
object node {     
      name R3-12-47-2_node_39;     
      phases BN;     
      voltage_B -3600-6235j;     
      nominal_voltage 7200;     
}       
object node {     
      name R3-12-47-2_node_40;     
      phases AN;     
      voltage_A 7200+0.0j;     
      nominal_voltage 7200;     
}       
object node {     
      name R3-12-47-2_node_41;     
      phases AN;     
      voltage_A 7200+0.0j;     
      nominal_voltage 7200;     
}       
object node {     
      name R3-12-47-2_node_42;     
      phases CN;     
      voltage_C -3600+6235j;     
      nominal_voltage 7200;     
}       
object node {     
      name R3-12-47-2_node_43;     
      phases ABCN;     
      voltage_A 7200+0.0j;     
      voltage_B -3600-6235j;     
      voltage_C -3600+6235j;     
      nominal_voltage 7200;     
}       
object node {     
      name R3-12-47-2_node_44;     
      phases ABCN;     
      voltage_A 7200+0.0j;     
      voltage_B -3600-6235j;     
      voltage_C -3600+6235j;     
      nominal_voltage 7200;     
}       
object node {     
      name R3-12-47-2_node_45;     
      phases ABCN;     
      voltage_A 7200+0.0j;     
      voltage_B -3600-6235j;     
      voltage_C -3600+6235j;     
      nominal_voltage 7200;     
}       
object node {     
      name R3-12-47-2_node_46;     
      phases ABCN;     
      voltage_A 7200+0.0j;     
      voltage_B -3600-6235j;     
      voltage_C -3600+6235j;     
      nominal_voltage 7200;     
}       
object node {     
      name R3-12-47-2_node_47;     
      phases ABCN;     
      voltage_A 7200+0.0j;     
      voltage_B -3600-6235j;     
      voltage_C -3600+6235j;     
      nominal_voltage 7200;     
}       
object node {     
      name R3-12-47-2_node_48;     
      phases ABCN;     
      voltage_A 7200+0.0j;     
      voltage_B -3600-6235j;     
      voltage_C -3600+6235j;     
      nominal_voltage 7200;     
}       
object node {     
      name R3-12-47-2_node_49;     
      phases ABCN;     
      voltage_A 7200+0.0j;     
      voltage_B -3600-6235j;     
      voltage_C -3600+6235j;     
...